@<TRIPOS>MOLECULE
ACETONE_EPM
 10 9 1 0 0
SMALL
USER_CHARGES

@<TRIPOS>ATOM
1  C1  -1.50000   1.00000   0.00000  C.3  1  ACET  -0.12
2  C2   0.00000   0.00000   0.00000  C.2  1  ACET   0.20
3  C3  -1.50000  -1.00000   0.00000  C.3  1  ACET  -0.12
4  O1   1.20000   0.00000   0.00000  O.2  1  ACET  -0.50
5  H1  -2.10000   1.90000   0.00000  H    1  ACET   0.09
6  H2  -2.10000   0.40000   0.90000  H    1  ACET   0.09
7  H3  -2.10000   0.40000  -0.90000  H    1  ACET   0.09
8  H4  -2.10000  -1.90000   0.00000  H    1  ACET   0.09
9  H5  -2.10000  -0.40000   0.90000  H    1  ACET   0.09
10 H6  -2.10000  -0.40000  -0.90000  H    1  ACET   0.09

@<TRIPOS>BOND
1  1 2 1
2  2 3 1
3  2 4 2
4  1 5 1
5  1 6 1
6  1 7 1
7  3 8 1
8  3 9 1
9  3 10 1

@<TRIPOS>SUBSTRUCTURE
1  ACET  1  RES  0  ****  0  ROOT