@<TRIPOS>MOLECULE
ETHANOL_EPM
 9 8 1 0 0
SMALL
USER_CHARGES

@<TRIPOS>ATOM
1  C1    1.57600   0.76625  -0.74616  C.3  1  ETHA  -0.12
2  C2    0.63807  -0.02172   0.18711  C.3  1  ETHA  -0.12
3  O1   -0.68870   0.08619  -0.29440  O.2  1  ETHA  -0.66
4  H1    1.42189   0.44115  -1.77507  H    1  ETHA   0.09
5  H2    1.35844   1.83124  -0.66516  H    1  ETHA   0.09
6  H3    2.61154   0.58407  -0.45880  H    1  ETHA   0.09
7  H4    0.93793  -1.07289   0.19920  H    1  ETHA   0.09
8  H5    0.69573   0.39576   1.19560  H    1  ETHA   0.09
9  H6   -1.25544  -0.41932   0.31285  H    1  ETHA   0.45

@<TRIPOS>BOND
1  1 2 1
2  2 3 1
3  1 4 1
4  1 5 1
5  1 6 1
6  2 7 1
7  2 8 1
8  3 9 1

@<TRIPOS>SUBSTRUCTURE
1  ETHA  1  RES  0  ****  0  ROOT