@<TRIPOS>MOLECULE
FORMALDEHYDE_EPM
 4 3 1 0 0
SMALL
USER_CHARGES

@<TRIPOS>ATOM
1  C1   0.63807  -0.02172   0.18711  C.2  1  FORM   0.30
2  O1  -0.68870   0.08619  -0.29440  O.2  1  FORM  -0.50
3  H1   0.93793  -1.07289   0.19920  H    1  FORM   0.10
4  H2   0.69573   0.39576   1.19560  H    1  FORM   0.10

@<TRIPOS>BOND
1  1 2 2
2  1 3 1
3  1 4 1

@<TRIPOS>SUBSTRUCTURE
1  FORM  1  RES  0  ****  0  ROOT