@<TRIPOS>MOLECULE
METHANOL_EPM
 6 5 1 0 0
SMALL
USER_CHARGES

@<TRIPOS>ATOM
1  C1   0.63807  -0.02172   0.18711  C.3  1  METH  -0.10
2  O1  -0.68870   0.08619  -0.29440  O.2  1  METH  -0.65
3  H1   0.93793  -1.07289   0.19920  H    1  METH   0.10
4  H2   0.69573   0.39576   1.19560  H    1  METH   0.10
5  H3   1.30316   0.53703  -0.47467  H    1  METH   0.10
6  H4  -1.25544  -0.41932   0.31285  H    1  METH   0.45

@<TRIPOS>BOND
1  1 2 1
2  1 3 1
3  1 4 1
4  1 5 1
5  2 6 1

@<TRIPOS>SUBSTRUCTURE
1  METH  1  RES  0  ****  0  ROOT